/*--------------------------------*- C++ -*----------------------------------*\
| =========                 |                                                 |
| \\      /  F ield         | OpenFOAM: The Open Source CFD Toolbox           |
|  \\    /   O peration     | Version:  2.1.1_adj                             |
|   \\  /    A nd           | Web:      www.OpenFOAM.org                      |
|    \\/     M anipulation  |                                                 |
\*---------------------------------------------------------------------------*/
FoamFile
{
    version     2.0;
    format      ascii;
    class       dictionary;
    location    "constant";
    object      transportProperties;
}
// * * * * * * * * * * * * * * * * * * * * * * * * * * * * * * * * * * * * * //

transportModel  Newtonian;

rho             rho [ 1 -3 0 0 0 0 0 ] 1;

nu              nu [ 0 2 -1 0 0 0 0 ] 0.01;

CrossPowerLawCoeffs
{
    nu0             nu0 [0 2 -1 0 0 0 0] 1e-06;
    nuInf           nuInf [0 2 -1 0 0 0 0] 1e-06;
    m               m [0 0 1 0 0 0 0] 1;
    n               n [0 0 0 0 0 0 0] 1;
}

BirdCarreauCoeffs
{
    nu0             nu0 [0 2 -1 0 0 0 0] 1e-06;
    nuInf           nuInf [0 2 -1 0 0 0 0] 1e-06;
    k               k [0 0 1 0 0 0 0] 0;
    n               n [0 0 0 0 0 0 0] 1;
}

lambda          lambda   [0 -2 1 0 0 0 0] 0.0;
alphaMax        alphaMax [0 0 -1 0 0 0 0] 2000.0;
alphaMean       alphaMean [0 0 -1 0 0 0 0] 200.0;
alphaFixed      alphaFixed [0 0 -1 0 0 0 0] 5.;


// ************************************************************************* //
