/*---------------------------------------------------------------------------*\
| =========                 |                                                 |
| \\      /  F ield         | OpenFOAM: The Open Source CFD Toolbox           |
|  \\    /   O peration     | Version:  1.3                                   |
|   \\  /    A nd           | Web:      http://www.openfoam.org               |
|    \\/     M anipulation  |                                                 |
\*---------------------------------------------------------------------------*/

// FoamX Case Dictionary.

FoamFile
{
    version         2.0;
    format          ascii;

    root            "/home/fisch/software/carat20/repos/carat20/examples/my_examples/";
    case            "cfd_chimney_0";
    instance        "constant/polyMesh";
    local           "";

    class           dictionary;
    object          blockMeshDict;
}

// * * * * * * * * * * * * * * * * * * * * * * * * * * * * * * * * * * * * * //


convertToMeters 1.0;

vertices	(				
(	0.00000000	0.00000000	0.00000000	) //	0
(	1.00000000	0.00000000	0.00000000	) //	1
(	0.00000000	1.00000000	0.00000000	) //	2
(	1.00000000	1.00000000	0.00000000	) //	3
(	0.00000000	0.00000000	0.01000000	) //	4
(	1.00000000	0.00000000	0.01000000	) //	5
(	0.00000000	1.00000000	0.01000000	) //	6
(	1.00000000	1.00000000	0.01000000	) //	7
);					


blocks		
(																							
hex	(	2	3	7	6	0	1	5	4	)	(	NELE	1	NELE	)	simpleGrading	(	1.00	1.00	1.00	)	//	0
)																							



edges
(
);
patches
(
patch	top	(			
(	2	3	7	6	)
)					
patch bottom	(				
(	0	1	5	4	)
)					
patch	inlet	(			
(	0	4	6	2	)
)					
patch	outlet	(			
(	1	5	7	3	)
)					
empty	frontback	(			
(	0	1	3	2	)
(	4	5	7	6	)
)					
);					


mergePatchPairs 
(

);


// ************************************************************************* //
