/*---------------------------------------------------------------------------*\
| =========                 |                                                 |
| \\      /  F ield         | OpenFOAM: The Open Source CFD Toolbox           |
|  \\    /   O peration     | Version:  1.3                                   |
|   \\  /    A nd           | Web:      http://www.openfoam.org               |
|    \\/     M anipulation  |                                                 |
\*---------------------------------------------------------------------------*/

// FoamX Case Dictionary.

FoamFile
{
    version         2.0;
    format          ascii;

    root            "";
    case            "";
    instance        "";
    local           "";

    class           dictionary;
    object          bridgeProperties;
}

// * * * * * * * * * * * * * * * * * * * * * * * * * * * * * * * * * * * * * //

densityFluid 1.210;

//inletPatchName INLET;

//inletUmean 2.0;

//bridgePatchName BODY;
bridgePatchName top;

momentCenterX 0.0000;
momentCenterY 0.0000;

//experimentType staticCoefficient;
experimentType rigid;

angleOfStaticCoef 0;
PositionInPreviousTimeStep 0;//;6.9387755;//2.244898; //relative to the moment Center in the direction of motion

StartTimeOfSimulation 12.0;
timeOfFixingPosition 12.1;


//thickness 0.01;
//Blength  0.0605;
//Uinf 8.000;


// List of pressure probes with a fixed location (independent of meshmotion)
listPreP (
    //0 0.83 -0.70
    //0 0.58 -0.70
    );

//writePInterval 0.0002;
writePInterval 0.1;
writeTotalForceInterval 1;

// ************************************************************************* //
