/*---------------------------------------------------------------------------*\
| =========                 |                                                 |
| \\      /  F ield         | OpenFOAM: The Open Source CFD Toolbox           |
|  \\    /   O peration     | Version:  1.3                                   |
|   \\  /    A nd           | Web:      http://www.openfoam.org               |
|    \\/     M anipulation  |                                                 |
\*---------------------------------------------------------------------------*/

// FoamX Case Dictionary.

FoamFile
{
    version         2.0;
    format          ascii;

    root            "/home/gallinger/OpenFOAM/gallinger-1.3/run/tutorials/interFoam";
    case            "damBreakFine";
    instance        "system";
    local           "";

    class           dictionary;
    object          decomposeParDict;
}

// * * * * * * * * * * * * * * * * * * * * * * * * * * * * * * * * * * * * * //


numberOfSubdomains 8;
//numberOfSubdomains 3;
//method          metis;
method          hierarchical;

simpleCoeffs
{
    n               (2 1 2);
    delta           0.0000001;
}

metisCoeffs 
{ 
 processorWeights 
 ( 
 1 
 1 
 1
 1
 1 
 1 
 1
 1
 ); 
} 
 
  hierarchicalCoeffs
{
    n               (4 1 2);
    delta           0.000001;
    order           xzy;
}


// ************************************************************************* //
