FoamFile
{
    version         2.0;
    format          ascii;

    root            "/.automount/werner/Werner/bgschaid/bgschaid-foamStuff/DepositionTests";
    case            "neutralTest";
    instance        "system";
    local           "";

    class           dictionary;
    object          funkySetFieldsDict;
}

expressions
(

	setPstart
	{
		field p;
		expression "0.";
		keepPatches true;
	}
  	setUstart
	{
		field U;
		expression "vector(1.,0,0)*(pos().x) + vector(0,1,0)*(-pos().y)";
		keepPatches true;
	}

);
