/*---------------------------------------------------------------------------*\
| =========                 |                                                 |
| \\      /  F ield         | OpenFOAM: The Open Source CFD Toolbox           |
|  \\    /   O peration     | Version:  1.3                                   |
|   \\  /    A nd           | Web:      http://www.openfoam.org               |
|    \\/     M anipulation  |                                                 |
\*---------------------------------------------------------------------------*/

FoamFile
{
    version         2.0;
    format          ascii;

    root            "";
    case            "";
    instance        "";
    local           "";

    class           dictionary;
    object          fvSolution;
}

// * * * * * * * * * * * * * * * * * * * * * * * * * * * * * * * * * * * * * //

solvers
{
    p
    {
    solver          GAMG;                                   
    tolerance       1e-11;                                  
    relTol          0;//1e-6;                                      
    minIter         0;                                      
    maxIter         1000;                                   
    scaleCorrection true;                                   
    directSolveCoarsest true;  
    //preconditioner  FDIC;
    smoother        DIC;                                    
    nPreSweeps      0;                                      
    nPostSweeps     2;                                      
    nFinestSweeps   2;                                      
    cacheAgglomeration true;                                
    nCellsInCoarsestLevel 10;                               
    agglomerator    faceAreaPair;                           
    mergeLevels     1;  
    }
    pFinal
    {
    solver          GAMG;                                   
    tolerance       1e-12;                                  
    relTol          0.0;                                      
    minIter         0;                                      
    maxIter         1000;                                   
    scaleCorrection true;                                   
    directSolveCoarsest true;   
    //preconditioner  FDIC;
    smoother        DIC;                                    
    nPreSweeps      0;                                      
    nPostSweeps     2;                                      
    nFinestSweeps   2;                                      
    cacheAgglomeration true;                                
    nCellsInCoarsestLevel 10;                               
    agglomerator    faceAreaPair;                           
    mergeLevels     1;  
    }
        pcorr
    {
    solver          GAMG;                                   
    tolerance       1e-12;                                  
    relTol          0.0;                                      
    minIter         0;                                      
    maxIter         1000;                                   
    scaleCorrection true;                                   
    directSolveCoarsest true;   
    //preconditioner  FDIC;
    smoother        DIC;                                    
    nPreSweeps      0;                                      
    nPostSweeps     2;                                      
    nFinestSweeps   2;                                      
    cacheAgglomeration true;                                
    nCellsInCoarsestLevel 10;                               
    agglomerator    faceAreaPair;                           
    mergeLevels     1;  
    }

    U
    {
        solver          PBiCG;
        preconditioner  DILU;
	tolerance       1e-11;
        relTol          0;//1e-6;
    }
    UFinal
    {
        solver          PBiCG;
        preconditioner  DILU;
	tolerance       1e-12;
        relTol          0.0;
    }
    
       cellMotionU
    {
        solver          PCG;
        preconditioner  DIC;
        tolerance       1e-08;
        relTol          0;
    }
    
    cellDisplacement
    {
        solver          PCG;
        preconditioner  DIC;
        tolerance       1e-08;
        relTol          0;
    }
}

PISO
{    
    momentumPredictor yes;
    nCorrectors     3;
    nNonOrthogonalCorrectors 0;
    pRefCell        0;
    pRefValue       0;
    
}

SIMPLE
{
    nNonOrthogonalCorrectors 0;
    pRefCell        0;
    pRefValue       0;
    //convergence     1.0e-10;
    
    residualControl
    {
        p               1e-11;
        U               1e-11;
       // nuTilda         1e-10;
    }
}

PIMPLE
{
    correctPhi        yes;
    momentumPredictor yes;
    nOuterCorrectors 100;
    nCorrectors     2;
    nNonOrthogonalCorrectors 0;
    pRefCell        0;
    pRefValue       0;
    //convergence     1.0e-10;
    
    residualControl
    {
      
      p
      {
            tolerance 1e-011;
            relTol 0;
            absTol 0;
      }
       // p               1e-5;
        //U               1e-5;
       // nuTilda         1e-10;
    }
    

}
/*relaxationFactors
{
    default         0.8;
    p               0.3;
    //U               0.8;
    //nuTilda         0.8;
}*/
    

// ************************************************************************* //
